<configuration>
    <input>
       <net-file value="circular.net.xml"/>
       <route-files value="circular.rou.xml"/>
       <additional-files value="circular.add.xml"/>
    </input>
</configuration>
