<?xml version="1.0" encoding="UTF-8"?>

<!-- generated on Mo 25 Nov 2019 10:37:16 CET by Eclipse SUMO netedit Version v1_2_0+1311-3e209e504c
<configuration xmlns:xsi="http://www.w3.org/2001/XMLSchema-instance" xsi:noNamespaceSchemaLocation="http://sumo.dlr.de/xsd/netconvertConfiguration.xsd">

    <input>
        <sumo-net-file value="/home/kai/repos/sumo/projects/circular.net.xml"/>
    </input>

    <output>
        <output-file value="/home/kai/repos/sumo/projects/circular2.net.xml"/>
    </output>

    <processing>
        <geometry.max-grade.fix value="false"/>
        <offset.disable-normalization value="true"/>
        <lefthand value="false"/>
    </processing>

    <junctions>
        <no-turnarounds value="true"/>
        <junctions.corner-detail value="5"/>
        <junctions.limit-turn-speed value="5.5"/>
        <rectangular-lane-cut value="false"/>
    </junctions>

    <pedestrian>
        <walkingareas value="false"/>
    </pedestrian>

</configuration>
-->

<net version="1.3" junctionCornerDetail="5" limitTurnSpeed="5.50" xmlns:xsi="http://www.w3.org/2001/XMLSchema-instance" xsi:noNamespaceSchemaLocation="http://sumo.dlr.de/xsd/net_file.xsd">

    <location netOffset="0.00,0.00" convBoundary="-1123.06,-18.92,747.15,1749.30" origBoundary="-10000000000.00,-10000000000.00,10000000000.00,10000000000.00" projParameter="!"/>

    <edge id=":gneJ0_0" function="internal">
        <lane id=":gneJ0_0_0" index="0" speed="13.89" length="3.42" shape="-294.09,1715.75 -295.08,1715.57 -295.73,1715.32 -296.35,1714.99 -297.28,1714.58"/>
    </edge>
    <edge id=":gneJ1_0" function="internal">
        <lane id=":gneJ1_0_0" index="0" speed="13.89" length="0.10" shape="-423.22,1666.08 -423.30,1666.05"/>
    </edge>
    <edge id=":gneJ10_0" function="internal">
        <lane id=":gneJ10_0_0" index="0" speed="13.89" length="0.22" shape="-741.09,1483.61 -741.28,1483.48"/>
    </edge>
    <edge id=":gneJ11_0" function="internal">
        <lane id=":gneJ11_0_0" index="0" speed="13.89" length="0.83" shape="-934.74,1360.42 -934.94,1360.28 -935.07,1360.17 -935.17,1360.04 -935.29,1359.82"/>
    </edge>
    <edge id=":gneJ12_0" function="internal">
        <lane id=":gneJ12_0_0" index="0" speed="13.89" length="0.57" shape="-1079.17,1088.93 -1079.25,1088.78 -1079.29,1088.68 -1079.32,1088.56 -1079.35,1088.40"/>
    </edge>
    <edge id=":gneJ13_0" function="internal">
        <lane id=":gneJ13_0_0" index="0" speed="13.89" length="0.64" shape="-1124.65,757.31 -1124.67,757.12 -1124.67,756.99 -1124.65,756.86 -1124.61,756.68"/>
    </edge>
    <edge id=":gneJ14_0" function="internal">
        <lane id=":gneJ14_0_0" index="0" speed="13.89" length="0.86" shape="-1028.20,395.57 -1028.13,395.32 -1028.06,395.16 -1027.95,395.02 -1027.77,394.84"/>
    </edge>
    <edge id=":gneJ15_0" function="internal">
        <lane id=":gneJ15_0_0" index="0" speed="13.89" length="0.65" shape="-787.69,159.52 -787.55,159.38 -787.45,159.30 -787.33,159.24 -787.15,159.17"/>
    </edge>
    <edge id=":gneJ16_0" function="internal">
        <lane id=":gneJ16_0_0" index="0" speed="13.89" length="0.91" shape="-173.79,-20.50 -173.52,-20.54 -173.33,-20.54 -173.15,-20.49 -172.90,-20.39"/>
    </edge>
    <edge id=":gneJ18_0" function="internal">
        <lane id=":gneJ18_0_0" index="0" speed="13.89" length="0.62" shape="308.84,184.09 309.00,184.16 309.12,184.22 309.21,184.30 309.35,184.43"/>
    </edge>
    <edge id=":gneJ19_0" function="internal">
        <lane id=":gneJ19_0_0" index="0" speed="13.89" length="0.29" shape="719.26,690.76 719.30,691.04"/>
    </edge>
    <edge id=":gneJ20_0" function="internal">
        <lane id=":gneJ20_0_0" index="0" speed="13.89" length="0.64" shape="748.74,919.68 748.76,919.86 748.76,919.99 748.74,920.12 748.69,920.31"/>
    </edge>
    <edge id=":gneJ21_0" function="internal">
        <lane id=":gneJ21_0_0" index="0" speed="13.89" length="3.20" shape="691.54,1126.98 691.31,1127.91 691.18,1128.55 691.01,1129.17 690.68,1130.06"/>
    </edge>
    <edge id=":gneJ22_0" function="internal">
        <lane id=":gneJ22_0_0" index="0" speed="13.89" length="3.14" shape="614.03,1316.31 612.60,1319.10"/>
    </edge>
    <edge id=":gneJ23_0" function="internal">
        <lane id=":gneJ23_0_0" index="0" speed="13.89" length="3.41" shape="532.05,1475.32 531.54,1476.18 531.08,1476.70 530.55,1477.17 529.85,1477.90"/>
    </edge>
    <edge id=":gneJ24_0" function="internal">
        <lane id=":gneJ24_0_0" index="0" speed="13.89" length="0.49" shape="427.20,1594.33 427.10,1594.44 427.03,1594.51 426.95,1594.57 426.82,1594.64"/>
    </edge>
    <edge id=":gneJ25_0" function="internal">
        <lane id=":gneJ25_0_0" index="0" speed="13.89" length="3.28" shape="286.28,1678.97 285.46,1679.50 284.91,1679.89 284.35,1680.24 283.46,1680.63"/>
    </edge>
    <edge id=":gneJ26_0" function="internal">
        <lane id=":gneJ26_0_0" index="0" speed="13.89" length="3.49" shape="138.32,1737.13 137.37,1737.56 136.74,1737.91 136.08,1738.17 135.07,1738.32"/>
    </edge>
    <edge id=":gneJ27_0" function="internal">
        <lane id=":gneJ27_0_0" index="0" speed="13.89" length="3.36" shape="-18.49,1750.89 -19.48,1750.92 -20.15,1750.82 -20.83,1750.66 -21.81,1750.48"/>
    </edge>
    <edge id=":gneJ28_0" function="internal">
        <lane id=":gneJ28_0_0" index="0" speed="13.89" length="0.28" shape="-179.58,1729.01 -179.86,1728.97"/>
    </edge>
    <edge id=":gneJ7_0" function="internal">
        <lane id=":gneJ7_0_0" index="0" speed="13.89" length="3.31" shape="-571.05,1600.60 -571.96,1600.24 -572.60,1600.02 -573.22,1599.75 -574.05,1599.24"/>
    </edge>

    <edge id="edge1" from="gneJ0" to="gneJ1" priority="-1">
        <lane id="edge1_0" index="0" speed="13.89" length="134.95" shape="-297.28,1714.58 -423.22,1666.08"/>
    </edge>
    <edge id="edge2" from="gneJ18" to="gneJ19" priority="-1" shape="308.21,185.56 490.40,369.17 569.19,441.29 617.02,493.25 657.59,540.17 705.29,605.85 717.70,691.12">
        <lane id="edge2_0" index="0" speed="13.89" length="666.37" shape="309.35,184.43 491.51,368.02 570.32,440.16 618.21,492.18 658.84,539.17 706.82,605.23 719.26,690.76"/>
    </edge>
    <edge id="gneE10" from="gneJ15" to="gneJ16" priority="-1" shape="-786.57,160.66 -435.96,23.68 -173.53,-18.92">
        <lane id="gneE10_0" index="0" speed="13.89" length="642.62" shape="-787.15,159.17 -436.38,22.13 -173.79,-20.50"/>
    </edge>
    <edge id="gneE11" from="gneJ16" to="gneJ18" priority="-1">
        <lane id="gneE11_0" index="0" speed="13.89" length="523.34" shape="-172.90,-20.39 308.84,184.09"/>
    </edge>
    <edge id="gneE13" from="gneJ19" to="gneJ20" priority="-1">
        <lane id="gneE13_0" index="0" speed="13.89" length="230.52" shape="719.30,691.04 748.74,919.68"/>
    </edge>
    <edge id="gneE14" from="gneJ20" to="gneJ21" priority="-1">
        <lane id="gneE14_0" index="0" speed="13.89" length="214.43" shape="748.69,920.31 691.54,1126.98"/>
    </edge>
    <edge id="gneE15" from="gneJ21" to="gneJ22" priority="-1">
        <lane id="gneE15_0" index="0" speed="13.89" length="201.41" shape="690.68,1130.06 614.03,1316.31"/>
    </edge>
    <edge id="gneE16" from="gneJ22" to="gneJ23" priority="-1">
        <lane id="gneE16_0" index="0" speed="13.89" length="175.76" shape="612.60,1319.10 532.05,1475.32"/>
    </edge>
    <edge id="gneE17" from="gneJ23" to="gneJ24" priority="-1">
        <lane id="gneE17_0" index="0" speed="13.89" length="155.22" shape="529.85,1477.90 427.20,1594.33"/>
    </edge>
    <edge id="gneE18" from="gneJ24" to="gneJ25" priority="-1">
        <lane id="gneE18_0" index="0" speed="13.89" length="163.90" shape="426.82,1594.64 286.28,1678.97"/>
    </edge>
    <edge id="gneE19" from="gneJ25" to="gneJ26" priority="-1">
        <lane id="gneE19_0" index="0" speed="13.89" length="155.75" shape="283.46,1680.63 138.32,1737.13"/>
    </edge>
    <edge id="gneE20" from="gneJ26" to="gneJ27" priority="-1">
        <lane id="gneE20_0" index="0" speed="13.89" length="154.07" shape="135.07,1738.32 -18.49,1750.89"/>
    </edge>
    <edge id="gneE21" from="gneJ27" to="gneJ28" priority="-1">
        <lane id="gneE21_0" index="0" speed="13.89" length="159.23" shape="-21.81,1750.48 -179.58,1729.01"/>
    </edge>
    <edge id="gneE23" from="gneJ28" to="gneJ0" priority="-1">
        <lane id="gneE23_0" index="0" speed="13.89" length="115.00" shape="-179.86,1728.97 -294.09,1715.75"/>
    </edge>
    <edge id="gneE3" from="gneJ1" to="gneJ7" priority="-1">
        <lane id="gneE3_0" index="0" speed="13.89" length="161.60" shape="-423.30,1666.05 -571.05,1600.60"/>
    </edge>
    <edge id="gneE4" from="gneJ7" to="gneJ10" priority="-1">
        <lane id="gneE4_0" index="0" speed="13.89" length="203.16" shape="-574.05,1599.24 -741.09,1483.61"/>
    </edge>
    <edge id="gneE5" from="gneJ10" to="gneJ11" priority="-1">
        <lane id="gneE5_0" index="0" speed="13.89" length="229.28" shape="-741.28,1483.48 -934.74,1360.42"/>
    </edge>
    <edge id="gneE6" from="gneJ11" to="gneJ12" priority="-1">
        <lane id="gneE6_0" index="0" speed="13.89" length="306.73" shape="-935.29,1359.82 -1079.17,1088.93"/>
    </edge>
    <edge id="gneE7" from="gneJ12" to="gneJ13" priority="-1">
        <lane id="gneE7_0" index="0" speed="13.89" length="334.17" shape="-1079.35,1088.40 -1124.65,757.31"/>
    </edge>
    <edge id="gneE8" from="gneJ13" to="gneJ14" priority="-1">
        <lane id="gneE8_0" index="0" speed="13.89" length="373.76" shape="-1124.61,756.68 -1028.20,395.57"/>
    </edge>
    <edge id="gneE9" from="gneJ14" to="gneJ15" priority="-1">
        <lane id="gneE9_0" index="0" speed="13.89" length="336.18" shape="-1027.77,394.84 -787.69,159.52"/>
    </edge>

    <junction id="gneJ0" type="priority" x="-293.91" y="1714.16" incLanes="gneE23_0" intLanes=":gneJ0_0_0" shape="-294.28,1717.34 -293.91,1714.16 -294.99,1713.92 -295.34,1713.76 -295.69,1713.56 -296.12,1713.34 -296.71,1713.08 -297.86,1716.07 -296.56,1716.65 -296.11,1716.88 -295.65,1717.06 -295.08,1717.22">
        <request index="0" response="0" foes="0" cont="0"/>
    </junction>
    <junction id="gneJ1" type="priority" x="-422.65" y="1664.59" incLanes="edge1_0" intLanes=":gneJ1_0_0" shape="-423.75,1667.59 -422.60,1664.61 -423.99,1667.50">
        <request index="0" response="0" foes="0" cont="0"/>
    </junction>
    <junction id="gneJ10" type="priority" x="-740.30" y="1482.21" incLanes="gneE4_0" intLanes=":gneJ10_0_0" shape="-742.00,1484.92 -740.18,1482.29 -740.42,1482.13 -742.14,1484.83">
        <request index="0" response="0" foes="0" cont="0"/>
    </junction>
    <junction id="gneJ11" type="priority" x="-933.88" y="1359.07" incLanes="gneE5_0" intLanes=":gneJ11_0_0" shape="-935.60,1361.77 -933.88,1359.07 -936.71,1360.57 -936.40,1361.10 -936.27,1361.28 -936.11,1361.42 -935.89,1361.58">
        <request index="0" response="0" foes="0" cont="0"/>
    </junction>
    <junction id="gneJ12" type="priority" x="-1077.76" y="1088.18" incLanes="gneE6_0" intLanes=":gneJ12_0_0" shape="-1080.59,1089.68 -1077.76,1088.18 -1080.93,1088.61 -1080.87,1089.03 -1080.83,1089.17 -1080.78,1089.31 -1080.70,1089.47">
        <request index="0" response="0" foes="0" cont="0"/>
    </junction>
    <junction id="gneJ13" type="priority" x="-1123.06" y="757.09" incLanes="gneE7_0" intLanes=":gneJ13_0_0" shape="-1126.23,757.52 -1123.06,757.09 -1126.15,756.26 -1126.26,756.72 -1126.28,756.89 -1126.28,757.05 -1126.27,757.26">
        <request index="0" response="0" foes="0" cont="0"/>
    </junction>
    <junction id="gneJ14" type="priority" x="-1026.65" y="395.98" incLanes="gneE8_0" intLanes=":gneJ14_0_0" shape="-1026.65,395.98 -1028.89,393.69 -1029.33,394.15 -1029.46,394.34 -1029.56,394.54 -1029.64,394.80 -1029.74,395.15">
        <request index="0" response="0" foes="0" cont="0"/>
    </junction>
    <junction id="gneJ15" type="priority" x="-786.57" y="160.66" incLanes="gneE9_0" intLanes=":gneJ15_0_0" shape="-786.57,160.66 -787.73,157.68 -788.18,157.86 -788.32,157.95 -788.46,158.05 -788.61,158.18 -788.81,158.37">
        <request index="0" response="0" foes="0" cont="0"/>
    </junction>
    <junction id="gneJ16" type="priority" x="-173.53" y="-18.92" incLanes="gneE10_0" intLanes=":gneJ16_0_0" shape="-173.53,-18.92 -172.28,-21.87 -172.91,-22.11 -173.14,-22.16 -173.38,-22.16 -173.66,-22.14 -174.04,-22.08">
        <request index="0" response="0" foes="0" cont="0"/>
    </junction>
    <junction id="gneJ18" type="priority" x="308.21" y="185.56" incLanes="gneE11_0" intLanes=":gneJ18_0_0" shape="308.21,185.56 310.48,183.31 310.15,182.99 310.02,182.89 309.88,182.80 309.70,182.72 309.46,182.61">
        <request index="0" response="0" foes="0" cont="0"/>
    </junction>
    <junction id="gneJ19" type="priority" x="717.70" y="691.12" incLanes="edge2_0" intLanes=":gneJ19_0_0" shape="717.72,691.25 720.89,690.84 720.85,690.53 717.68,690.99">
        <request index="0" response="0" foes="0" cont="0"/>
    </junction>
    <junction id="gneJ20" type="priority" x="747.15" y="919.88" incLanes="gneE13_0" intLanes=":gneJ20_0_0" shape="750.32,919.47 747.15,919.88 750.23,920.73 750.35,920.27 750.37,920.11 750.37,919.94 750.36,919.74">
        <request index="0" response="0" foes="0" cont="0"/>
    </junction>
    <junction id="gneJ21" type="priority" x="689.20" y="1129.45" incLanes="gneE14_0" intLanes=":gneJ21_0_0" shape="693.08,1127.41 690.00,1126.56 689.74,1127.64 689.66,1128.03 689.57,1128.41 689.43,1128.85 689.20,1129.45 692.16,1130.67 692.58,1129.49 692.69,1129.06 692.79,1128.63 692.90,1128.11">
        <request index="0" response="0" foes="0" cont="0"/>
    </junction>
    <junction id="gneJ22" type="priority" x="612.55" y="1315.70" incLanes="gneE15_0" intLanes=":gneJ22_0_0" shape="615.51,1316.92 612.55,1315.70 611.18,1318.37 614.02,1319.83">
        <request index="0" response="0" foes="0" cont="0"/>
    </junction>
    <junction id="gneJ23" type="priority" x="530.63" y="1474.59" incLanes="gneE16_0" intLanes=":gneJ23_0_0" shape="533.47,1476.06 530.63,1474.59 530.03,1475.52 529.75,1475.79 529.45,1476.05 529.09,1476.38 528.65,1476.84 531.05,1478.96 532.04,1477.95 532.40,1477.60 532.74,1477.24 533.08,1476.76">
        <request index="0" response="0" foes="0" cont="0"/>
    </junction>
    <junction id="gneJ24" type="priority" x="426.00" y="1593.27" incLanes="gneE17_0" intLanes=":gneJ24_0_0" shape="428.40,1595.39 426.00,1593.27 427.65,1596.01 427.96,1595.82 428.06,1595.74 428.15,1595.66 428.26,1595.54">
        <request index="0" response="0" foes="0" cont="0"/>
    </junction>
    <junction id="gneJ25" type="priority" x="282.88" y="1679.14" incLanes="gneE18_0" intLanes=":gneJ25_0_0" shape="287.10,1680.34 285.45,1677.60 284.52,1678.22 284.21,1678.45 283.88,1678.67 283.47,1678.89 282.88,1679.14 284.04,1682.12 285.23,1681.58 285.62,1681.33 286.00,1681.06 286.46,1680.74">
        <request index="0" response="0" foes="0" cont="0"/>
    </junction>
    <junction id="gneJ26" type="priority" x="134.94" y="1736.73" incLanes="gneE19_0" intLanes=":gneJ26_0_0" shape="138.90,1738.62 137.74,1735.64 136.72,1736.14 136.37,1736.34 136.02,1736.51 135.57,1736.64 134.94,1736.73 135.20,1739.92 136.62,1739.67 137.10,1739.48 137.56,1739.24 138.12,1738.96">
        <request index="0" response="0" foes="0" cont="0"/>
    </junction>
    <junction id="gneJ27" type="priority" x="-18.62" y="1749.30" incLanes="gneE20_0" intLanes=":gneJ27_0_0" shape="-18.36,1752.49 -18.62,1749.30 -19.72,1749.29 -20.11,1749.22 -20.49,1749.12 -20.96,1749.00 -21.59,1748.90 -22.02,1752.07 -20.67,1752.32 -20.20,1752.43 -19.72,1752.50 -19.14,1752.53">
        <request index="0" response="0" foes="0" cont="0"/>
    </junction>
    <junction id="gneJ28" type="priority" x="-179.52" y="1727.40" incLanes="gneE21_0" intLanes=":gneJ28_0_0" shape="-179.80,1730.59 -179.37,1727.42 -179.67,1727.38 -180.04,1730.56">
        <request index="0" response="0" foes="0" cont="0"/>
    </junction>
    <junction id="gneJ7" type="priority" x="-573.14" y="1597.92" incLanes="gneE3_0" intLanes=":gneJ7_0_0" shape="-571.69,1602.06 -570.40,1599.14 -571.44,1598.74 -571.82,1598.62 -572.19,1598.48 -572.60,1598.26 -573.14,1597.92 -574.96,1600.55 -573.82,1601.24 -573.39,1601.42 -572.94,1601.57 -572.40,1601.77">
        <request index="0" response="0" foes="0" cont="0"/>
    </junction>

    <connection from="edge1" to="gneE3" fromLane="0" toLane="0" via=":gneJ1_0_0" dir="s" state="M"/>
    <connection from="edge2" to="gneE13" fromLane="0" toLane="0" via=":gneJ19_0_0" dir="s" state="M"/>
    <connection from="gneE10" to="gneE11" fromLane="0" toLane="0" via=":gneJ16_0_0" dir="s" state="M"/>
    <connection from="gneE11" to="edge2" fromLane="0" toLane="0" via=":gneJ18_0_0" dir="s" state="M"/>
    <connection from="gneE13" to="gneE14" fromLane="0" toLane="0" via=":gneJ20_0_0" dir="s" state="M"/>
    <connection from="gneE14" to="gneE15" fromLane="0" toLane="0" via=":gneJ21_0_0" dir="s" state="M"/>
    <connection from="gneE15" to="gneE16" fromLane="0" toLane="0" via=":gneJ22_0_0" dir="s" state="M"/>
    <connection from="gneE16" to="gneE17" fromLane="0" toLane="0" via=":gneJ23_0_0" dir="s" state="M"/>
    <connection from="gneE17" to="gneE18" fromLane="0" toLane="0" via=":gneJ24_0_0" dir="s" state="M"/>
    <connection from="gneE18" to="gneE19" fromLane="0" toLane="0" via=":gneJ25_0_0" dir="s" state="M"/>
    <connection from="gneE19" to="gneE20" fromLane="0" toLane="0" via=":gneJ26_0_0" dir="s" state="M"/>
    <connection from="gneE20" to="gneE21" fromLane="0" toLane="0" via=":gneJ27_0_0" dir="s" state="M"/>
    <connection from="gneE21" to="gneE23" fromLane="0" toLane="0" via=":gneJ28_0_0" dir="s" state="M"/>
    <connection from="gneE23" to="edge1" fromLane="0" toLane="0" via=":gneJ0_0_0" dir="s" state="M"/>
    <connection from="gneE3" to="gneE4" fromLane="0" toLane="0" via=":gneJ7_0_0" dir="s" state="M"/>
    <connection from="gneE4" to="gneE5" fromLane="0" toLane="0" via=":gneJ10_0_0" dir="s" state="M"/>
    <connection from="gneE5" to="gneE6" fromLane="0" toLane="0" via=":gneJ11_0_0" dir="s" state="M"/>
    <connection from="gneE6" to="gneE7" fromLane="0" toLane="0" via=":gneJ12_0_0" dir="s" state="M"/>
    <connection from="gneE7" to="gneE8" fromLane="0" toLane="0" via=":gneJ13_0_0" dir="s" state="M"/>
    <connection from="gneE8" to="gneE9" fromLane="0" toLane="0" via=":gneJ14_0_0" dir="s" state="M"/>
    <connection from="gneE9" to="gneE10" fromLane="0" toLane="0" via=":gneJ15_0_0" dir="s" state="M"/>

    <connection from=":gneJ0_0" to="edge1" fromLane="0" toLane="0" dir="s" state="M"/>
    <connection from=":gneJ1_0" to="gneE3" fromLane="0" toLane="0" dir="s" state="M"/>
    <connection from=":gneJ10_0" to="gneE5" fromLane="0" toLane="0" dir="s" state="M"/>
    <connection from=":gneJ11_0" to="gneE6" fromLane="0" toLane="0" dir="s" state="M"/>
    <connection from=":gneJ12_0" to="gneE7" fromLane="0" toLane="0" dir="s" state="M"/>
    <connection from=":gneJ13_0" to="gneE8" fromLane="0" toLane="0" dir="s" state="M"/>
    <connection from=":gneJ14_0" to="gneE9" fromLane="0" toLane="0" dir="s" state="M"/>
    <connection from=":gneJ15_0" to="gneE10" fromLane="0" toLane="0" dir="s" state="M"/>
    <connection from=":gneJ16_0" to="gneE11" fromLane="0" toLane="0" dir="s" state="M"/>
    <connection from=":gneJ18_0" to="edge2" fromLane="0" toLane="0" dir="s" state="M"/>
    <connection from=":gneJ19_0" to="gneE13" fromLane="0" toLane="0" dir="s" state="M"/>
    <connection from=":gneJ20_0" to="gneE14" fromLane="0" toLane="0" dir="s" state="M"/>
    <connection from=":gneJ21_0" to="gneE15" fromLane="0" toLane="0" dir="s" state="M"/>
    <connection from=":gneJ22_0" to="gneE16" fromLane="0" toLane="0" dir="s" state="M"/>
    <connection from=":gneJ23_0" to="gneE17" fromLane="0" toLane="0" dir="s" state="M"/>
    <connection from=":gneJ24_0" to="gneE18" fromLane="0" toLane="0" dir="s" state="M"/>
    <connection from=":gneJ25_0" to="gneE19" fromLane="0" toLane="0" dir="s" state="M"/>
    <connection from=":gneJ26_0" to="gneE20" fromLane="0" toLane="0" dir="s" state="M"/>
    <connection from=":gneJ27_0" to="gneE21" fromLane="0" toLane="0" dir="s" state="M"/>
    <connection from=":gneJ28_0" to="gneE23" fromLane="0" toLane="0" dir="s" state="M"/>
    <connection from=":gneJ7_0" to="gneE4" fromLane="0" toLane="0" dir="s" state="M"/>

</net>
